Version 4
SHEET 1 880 680
WIRE 656 -64 -592 -64
WIRE 256 0 -336 0
WIRE 256 64 256 0
WIRE 192 112 144 112
WIRE 656 128 656 -64
WIRE -592 144 -592 -64
WIRE -336 144 -336 0
WIRE -48 208 -128 208
WIRE 16 208 -48 208
WIRE 144 208 144 112
WIRE 144 208 96 208
WIRE 256 208 256 160
WIRE 448 208 256 208
WIRE 480 208 448 208
WIRE 608 208 560 208
WIRE -128 240 -128 208
WIRE 256 256 256 208
WIRE 656 272 656 224
WIRE 144 304 144 208
WIRE 192 304 144 304
WIRE -592 400 -592 224
WIRE -336 400 -336 224
WIRE -336 400 -592 400
WIRE -128 400 -128 320
WIRE -128 400 -336 400
WIRE 256 400 256 352
WIRE 256 400 -128 400
WIRE 656 400 656 352
WIRE 656 400 256 400
WIRE 256 432 256 400
FLAG 256 432 0
FLAG 448 208 Out
FLAG -48 208 input
SYMBOL voltage -128 224 R0
WINDOW 3 -147 124 Left 2
WINDOW 123 0 0 Left 0
WINDOW 39 0 0 Left 0
SYMATTR InstName V1
SYMATTR Value PULSE(0 3.3 0 0 0 0.0000125 0.000025 10)
SYMBOL res 112 192 R90
WINDOW 0 0 56 VBottom 2
WINDOW 3 32 56 VTop 2
SYMATTR InstName R1
SYMATTR Value 220
SYMBOL voltage -336 128 R0
WINDOW 123 0 0 Left 0
WINDOW 39 0 0 Left 0
SYMATTR InstName V2
SYMATTR Value 12
SYMBOL nmos 608 128 R0
SYMATTR InstName M1
SYMATTR Value IRLHM630
SYMBOL res 640 256 R0
SYMATTR InstName load2
SYMATTR Value 2
SYMBOL res 576 192 R90
WINDOW 0 0 56 VBottom 2
WINDOW 3 32 56 VTop 2
SYMATTR InstName Rgate
SYMATTR Value 0.001
SYMBOL voltage -592 128 R0
WINDOW 123 0 0 Left 0
WINDOW 39 0 0 Left 0
SYMATTR InstName V3
SYMATTR Value 12
SYMBOL npn 192 64 R0
SYMATTR InstName Q1
SYMBOL pnp 192 256 R0
SYMATTR InstName Q2
TEXT -370 456 Left 2 !.tran 0.0003
TEXT -216 120 Left 2 ;input set to 40KHz
